Circuit: * D:\___Studia___\_PracaInzynierska_\BScThesis\Project\Desktop\save.asc

Direct Newton iteration for .op point succeeded.

Date: Tue Nov  7 13:50:45 2023
Total elapsed time: 0.135 seconds.

tnom = 27
temp = 27
method = modified trap
totiter = 2099
traniter = 2096
tranpoints = 1049
accept = 1049
rejected = 0
matrix size = 2
fillins = 0
solver = Normal
Avg thread counts: 2.9/4.8/4.8/2.9
Matrix Compiler1:       2 opcodes  0.1/[0.1]/0.1
Matrix Compiler2: 96 bytes object code size  0.1/0.1/[0.1]

