Circuit: * D:\___Studia___\_PracaInzynierska_\BScThesis\Project\Desktop\save\save.asc

WARNING: Less than two connections to node n001.  This node is used by d§led0id1.
Direct Newton iteration for .op point succeeded.

Date: Wed Jan 17 23:05:39 2024
Total elapsed time: 0.173 seconds.

tnom = 27
temp = 27
method = modified trap
totiter = 2125
traniter = 2096
tranpoints = 1049
accept = 1049
rejected = 0
matrix size = 5
fillins = 0
solver = Normal
Avg thread counts: 2.9/4.8/4.8/2.9
Matrix Compiler1: 168 bytes object code size  0.2/0.2/[0.2]
Matrix Compiler2: 321 bytes object code size  0.2/0.3/[0.1]

