Circuit: * D:\___Studia___\_PracaInzynierska_\BScThesis\Project\Desktop\save\save.asc

Direct Newton iteration for .op point succeeded.

Date: Mon Nov 27 12:24:45 2023
Total elapsed time: 0.172 seconds.

tnom = 27
temp = 27
method = modified trap
totiter = 2099
traniter = 2096
tranpoints = 1049
accept = 1049
rejected = 0
matrix size = 3
fillins = 0
solver = Normal
Avg thread counts: 2.9/4.8/4.8/2.9
Matrix Compiler1: off  [0.1]/0.1/0.1
Matrix Compiler2: off  [0.1]/0.1/0.1

