Circuit: * D:\___Studia___\_PracaInzynierska_\BScThesis\Project\DatabaseUnitTest\x64\Release\save\save.asc

Direct Newton iteration for .op point succeeded.

Date: Wed Jan 17 04:53:05 2024
Total elapsed time: 0.168 seconds.

tnom = 27
temp = 27
method = modified trap
totiter = 2102
traniter = 2096
tranpoints = 1049
accept = 1049
rejected = 0
matrix size = 4
fillins = 0
solver = Normal
Avg thread counts: 2.9/4.8/4.8/2.9
Matrix Compiler1: off  [0.1]/0.1/0.1
Matrix Compiler2: 248 bytes object code size  0.1/0.1/[0.1]

